/*--------------------------------*- C++ -*----------------------------------*\
  =========                 |
  \\      /  F ield         | OpenFOAM: The Open Source CFD Toolbox
   \\    /   O peration     | Website:  https://openfoam.org
    \\  /    A nd           | Version:  7
     \\/     M anipulation  |
\*---------------------------------------------------------------------------*/
FoamFile
{
    version     2.0;
    format      ascii;
    class       polyBoundaryMesh;
    location    "constant/polyMesh";
    object      boundary;
}
// * * * * * * * * * * * * * * * * * * * * * * * * * * * * * * * * * * * * * //

4
(
    fixedWalls
    {
        type            wall;
        inGroups        List<word> 1(wall);
        nFaces          400;
        startFace       19800;
    }
    down
    {
        type            wall;
        inGroups        List<word> 1(wall);
        nFaces          10000;
        startFace       20200;
    }
    tao2
    {
        type            patch;
        nFaces          7804;
        startFace       30200;
    }
    tao3
    {
        type            patch;
        nFaces          2196;
        startFace       38004;
    }
)

// ************************************************************************* //
