/*--------------------------------*- C++ -*----------------------------------*\
  =========                 |
  \\      /  F ield         | OpenFOAM: The Open Source CFD Toolbox
   \\    /   O peration     | Website:  https://openfoam.org
    \\  /    A nd           | Version:  7
     \\/     M anipulation  |
\*---------------------------------------------------------------------------*/
FoamFile
{
    version     2.0;
    format      ascii;
    class       volScalarField;
    object      T;
}
// * * * * * * * * * * * * * * * * * * * * * * * * * * * * * * * * * * * * * //

dimensions      [0 0 0 1 0 0 0];

internalField   uniform 428;

boundaryField
{
    tao3 
    {
        type            uniformFixedGradient;
        uniformGradient 
        {
	    type	    csvFile; 
	    nHeaderLine     1;
            refColumn       0;
	    componentColumns (1);
	    separator       ",";
	    mergeSeparators no;
	    file            "/home/dyfluid/OpenFOAM/dyfluid-7/run/sheettest/constant/heatflux.csv";
	}
    }

    tao2 
    {
        type            fixedGradient;
        gradient        uniform 0;
    }


    fixedWalls 
    {
        type            fixedGradient;
        gradient        uniform 0;
    }

    down
    {
        type            fixedGradient;
        gradient        uniform 5000;
    }
}

// ************************************************************************* //
